
     RDKit          3D

  0  0  0  0  0  0  0  0  0  0999 V3000
M  V30 BEGIN CTAB
M  V30 COUNTS 97 108 0 0 0
M  V30 BEGIN ATOM
M  V30 1 C -4.4584 -8.4872 -0.7096 0
M  V30 2 C -4.4584 -8.4872 0.7096 0
M  V30 3 C -3.9045 -7.4462 1.4078 0
M  V30 4 C -3.3189 -6.3448 0.7245 0
M  V30 5 C -2.7458 -5.2674 1.4392 0
M  V30 6 C -2.1981 -4.2372 0.7108 0
M  V30 7 C -2.1981 -4.2372 -0.7108 0
M  V30 8 C -2.7458 -5.2673 -1.4392 0
M  V30 9 C -3.3189 -6.3448 -0.7245 0
M  V30 10 C -3.9045 -7.4462 -1.4078 0
M  V30 11 N -1.5628 -3.0420 -1.1028 0
M  V30 12 C -1.2108 -2.3812 0.0000 0
M  V30 13 N -1.5628 -3.0420 1.1028 0
M  V30 14 C -1.3259 -2.5983 2.4998 0
M  V30 15 C -0.6351 -1.2509 2.5586 0
M  V30 16 C 0.7614 -1.1685 2.5643 0
M  V30 17 C 1.4098 0.0715 2.5579 0
M  V30 18 C 0.6401 1.2396 2.5644 0
M  V30 19 C -0.7580 1.1812 2.5582 0
M  V30 20 C -1.3847 -0.0695 2.5654 0
M  V30 21 C -1.5802 2.4527 2.4997 0
M  V30 22 N -1.8502 2.8772 1.1028 0
M  V30 23 C -1.4482 2.2455 0.0000 0
M  V30 24 N -1.8502 2.8772 -1.1027 0
M  V30 25 C -2.5771 4.0190 -0.7108 0
M  V30 26 C -3.2036 5.0032 -1.4392 0
M  V30 27 C -3.8586 6.0329 -0.7245 0
M  V30 28 C -4.5281 7.0855 -1.4078 0
M  V30 29 C -5.1607 8.0806 -0.7097 0
M  V30 30 C -5.1607 8.0806 0.7096 0
M  V30 31 C -4.5281 7.0855 1.4078 0
M  V30 32 C -3.8586 6.0329 0.7245 0
M  V30 33 C -3.2036 5.0032 1.4392 0
M  V30 34 C -2.5771 4.0190 0.7108 0
M  V30 35 C -1.5801 2.4527 -2.4997 0
M  V30 36 C -0.7580 1.1812 -2.5582 0
M  V30 37 C -1.3847 -0.0694 -2.5654 0
M  V30 38 C -0.6351 -1.2509 -2.5586 0
M  V30 39 C 0.7613 -1.1685 -2.5643 0
M  V30 40 C 1.4098 0.0714 -2.5579 0
M  V30 41 C 0.6401 1.2395 -2.5644 0
M  V30 42 C 2.9222 0.1473 -2.4996 0
M  V30 43 N 3.4256 0.1670 -1.1028 0
M  V30 44 C 2.6776 0.1390 0.0000 0
M  V30 45 N 3.4256 0.1670 1.1028 0
M  V30 46 C 4.7782 0.2187 0.7109 0
M  V30 47 C 5.9440 0.2634 1.4392 0
M  V30 48 C 7.1635 0.3099 0.7245 0
M  V30 49 C 8.4101 0.3577 1.4077 0
M  V30 50 C 9.5884 0.4026 0.7096 0
M  V30 51 C 9.5884 0.4026 -0.7096 0
M  V30 52 C 8.4101 0.3577 -1.4077 0
M  V30 53 C 7.1635 0.3098 -0.7245 0
M  V30 54 C 5.9440 0.2633 -1.4392 0
M  V30 55 C 4.7782 0.2187 -0.7108 0
M  V30 56 C 2.9222 0.1474 2.4996 0
M  V30 57 C -1.3260 -2.5983 -2.4998 0
M  V30 58 H -4.9016 -9.3207 -1.2412 0
M  V30 59 H -4.9016 -9.3207 1.2412 0
M  V30 60 H -3.9068 -7.4512 2.4917 0
M  V30 61 H -2.7491 -5.2755 2.5225 0
M  V30 62 H -2.7491 -5.2755 -2.5225 0
M  V30 63 H -3.9068 -7.4512 -2.4918 0
M  V30 64 H -0.7077 -1.4348 0.0000 0
M  V30 65 H -0.7255 -3.3676 2.9900 0
M  V30 66 H -2.2964 -2.5619 2.9992 0
M  V30 67 H 1.3510 -2.0805 2.5786 0
M  V30 68 H 1.1351 2.2062 2.5798 0
M  V30 69 H -2.4694 -0.1242 2.5812 0
M  V30 70 H -1.0627 3.2762 2.9964 0
M  V30 71 H -2.5454 2.3172 2.9924 0
M  V30 72 H -0.8734 1.3410 0.0000 0
M  V30 73 H -3.2086 5.0103 -2.5225 0
M  V30 74 H -4.5310 7.0901 -2.4918 0
M  V30 75 H -5.6672 8.8772 -1.2412 0
M  V30 76 H -5.6672 8.8772 1.2411 0
M  V30 77 H -4.5310 7.0901 2.4917 0
M  V30 78 H -3.2087 5.0103 2.5225 0
M  V30 79 H -1.0625 3.2762 -2.9964 0
M  V30 80 H -2.5453 2.3173 -2.9925 0
M  V30 81 H -2.4694 -0.1241 -2.5812 0
M  V30 82 H 1.3509 -2.0805 -2.5786 0
M  V30 83 H 1.1351 2.2061 -2.5798 0
M  V30 84 H 3.2875 1.0510 -2.9921 0
M  V30 85 H 3.3756 -0.7124 -2.9975 0
M  V30 86 H 1.6067 0.0992 0.0000 0
M  V30 87 H 5.9527 0.2644 2.5225 0
M  V30 88 H 8.4155 0.3582 2.4917 0
M  V30 89 H 10.5316 0.4387 1.2411 0
M  V30 90 H 10.5316 0.4387 -1.2412 0
M  V30 91 H 8.4155 0.3581 -2.4917 0
M  V30 92 H 5.9527 0.2643 -2.5225 0
M  V30 93 H 3.2874 1.0512 2.9920 0
M  V30 94 H 3.3756 -0.7122 2.9976 0
M  V30 95 H -0.7256 -3.3676 -2.9900 0
M  V30 96 H -2.2965 -2.5618 -2.9991 0
M  V30 97 Cl 1.0000 0.0000 0.0000 0 CHG=-1
M  V30 END ATOM
M  V30 BEGIN BOND
M  V30 1 1 1 2
M  V30 2 1 2 59
M  V30 3 2 2 3
M  V30 4 1 3 60
M  V30 5 1 4 3
M  V30 6 1 4 5
M  V30 7 1 5 61
M  V30 8 1 6 13
M  V30 9 2 6 5
M  V30 10 1 7 6
M  V30 11 1 8 9
M  V30 12 2 8 7
M  V30 13 2 9 4
M  V30 14 1 10 9
M  V30 15 2 10 1
M  V30 16 1 11 7
M  V30 17 1 11 12
M  V30 18 1 12 64
M  V30 19 1 12 13
M  V30 20 1 13 14
M  V30 21 1 14 15
M  V30 22 1 14 65
M  V30 23 1 14 66
M  V30 24 2 15 16
M  V30 25 1 15 20
M  V30 26 1 16 67
M  V30 27 1 17 16
M  V30 28 2 17 18
M  V30 29 1 18 68
M  V30 30 1 19 18
M  V30 31 2 19 20
M  V30 32 1 20 69
M  V30 33 1 21 19
M  V30 34 1 21 71
M  V30 35 1 21 70
M  V30 36 1 22 21
M  V30 37 1 23 72
M  V30 38 1 23 22
M  V30 39 1 24 25
M  V30 40 1 24 23
M  V30 41 1 25 34
M  V30 42 1 26 27
M  V30 43 2 26 25
M  V30 44 1 27 32
M  V30 45 2 28 27
M  V30 46 1 28 29
M  V30 47 2 29 30
M  V30 48 1 30 76
M  V30 49 1 30 31
M  V30 50 1 31 77
M  V30 51 2 32 31
M  V30 52 1 32 33
M  V30 53 1 33 78
M  V30 54 1 34 22
M  V30 55 2 34 33
M  V30 56 1 35 24
M  V30 57 1 36 35
M  V30 58 1 37 38
M  V30 59 2 37 36
M  V30 60 1 38 57
M  V30 61 2 39 38
M  V30 62 1 39 40
M  V30 63 1 40 42
M  V30 64 1 41 36
M  V30 65 2 41 40
M  V30 66 1 42 43
M  V30 67 1 43 55
M  V30 68 1 43 44
M  V30 69 1 44 86
M  V30 70 1 44 45
M  V30 71 1 45 56
M  V30 72 1 46 45
M  V30 73 1 46 47
M  V30 74 1 47 87
M  V30 75 1 48 49
M  V30 76 2 48 47
M  V30 77 1 49 88
M  V30 78 1 50 89
M  V30 79 2 50 49
M  V30 80 1 51 50
M  V30 81 1 52 53
M  V30 82 2 52 51
M  V30 83 1 53 48
M  V30 84 2 54 53
M  V30 85 1 54 55
M  V30 86 2 55 46
M  V30 87 1 56 17
M  V30 88 1 56 93
M  V30 89 1 56 94
M  V30 90 1 57 11
M  V30 91 1 58 1
M  V30 92 1 62 8
M  V30 93 1 63 10
M  V30 94 1 73 26
M  V30 95 1 74 28
M  V30 96 1 75 29
M  V30 97 1 79 35
M  V30 98 1 80 35
M  V30 99 1 81 37
M  V30 100 1 82 39
M  V30 101 1 83 41
M  V30 102 1 84 42
M  V30 103 1 85 42
M  V30 104 1 90 51
M  V30 105 1 91 52
M  V30 106 1 92 54
M  V30 107 1 95 57
M  V30 108 1 96 57
M  V30 END BOND
M  V30 END CTAB
M  END

$$$$
