97

C -4.458397 -8.487158 -0.709597
C -4.458397 -8.487158 0.709603
C -3.904497 -7.446158 1.407803
C -3.318897 -6.344758 0.724503
C -2.745797 -5.267358 1.439203
C -2.198097 -4.237158 0.710803
C -2.198097 -4.237158 -0.710797
C -2.745797 -5.267258 -1.439197
C -3.318897 -6.344758 -0.724497
C -3.904497 -7.446158 -1.407797
N -1.562797 -3.041958 -1.102797
C -1.210797 -2.381158 0.000003
N -1.562797 -3.041958 1.102803
C -1.325897 -2.598258 2.499803
C -0.635097 -1.250858 2.558603
C 0.761403 -1.168458 2.564303
C 1.409803 0.071542 2.557903
C 0.640103 1.239642 2.564403
C -0.757997 1.181242 2.558203
C -1.384697 -0.069458 2.565403
C -1.580197 2.452742 2.499703
N -1.850197 2.877242 1.102803
C -1.448197 2.245542 0.000003
N -1.850197 2.877242 -1.102697
C -2.577097 4.019042 -0.710797
C -3.203597 5.003242 -1.439197
C -3.858597 6.032942 -0.724497
C -4.528097 7.085542 -1.407797
C -5.160697 8.080642 -0.709697
C -5.160697 8.080642 0.709603
C -4.528097 7.085542 1.407803
C -3.858597 6.032942 0.724503
C -3.203597 5.003242 1.439203
C -2.577097 4.019042 0.710803
C -1.580097 2.452742 -2.499697
C -0.757997 1.181242 -2.558197
C -1.384697 -0.069358 -2.565397
C -0.635097 -1.250858 -2.558597
C 0.761303 -1.168458 -2.564297
C 1.409803 0.071442 -2.557897
C 0.640103 1.239542 -2.564397
C 2.922203 0.147342 -2.499597
N 3.425603 0.167042 -1.102797
C 2.677603 0.139042 0.000003
N 3.425603 0.167042 1.102803
C 4.778203 0.218742 0.710903
C 5.944003 0.263442 1.439203
C 7.163503 0.309942 0.724503
C 8.410103 0.357742 1.407703
C 9.588403 0.402642 0.709603
C 9.588403 0.402642 -0.709597
C 8.410103 0.357742 -1.407697
C 7.163503 0.309842 -0.724497
C 5.944003 0.263342 -1.439197
C 4.778203 0.218742 -0.710797
C 2.922203 0.147442 2.499603
C -1.325997 -2.598258 -2.499797
H -4.901597 -9.320658 -1.241197
H -4.901597 -9.320658 1.241203
H -3.906797 -7.451158 2.491703
H -2.749097 -5.275458 2.522503
H -2.749097 -5.275458 -2.522497
H -3.906797 -7.451158 -2.491797
H -0.707697 -1.434758 0.000003
H -0.725497 -3.367558 2.990003
H -2.296397 -2.561858 2.999203
H 1.351003 -2.080458 2.578603
H 1.135103 2.206242 2.579803
H -2.469397 -0.124158 2.581203
H -1.062697 3.276242 2.996403
H -2.545397 2.317242 2.992403
H -0.873397 1.341042 0.000003
H -3.208597 5.010342 -2.522497
H -4.530997 7.090142 -2.491797
H -5.667197 8.877242 -1.241197
H -5.667197 8.877242 1.241103
H -4.530997 7.090142 2.491703
H -3.208697 5.010342 2.522503
H -1.062497 3.276242 -2.996397
H -2.545297 2.317342 -2.992497
H -2.469397 -0.124058 -2.581197
H 1.350903 -2.080458 -2.578597
H 1.135103 2.206142 -2.579797
H 3.287503 1.051042 -2.992097
H 3.375603 -0.712358 -2.997497
H 1.606703 0.099242 0.000003
H 5.952703 0.264442 2.522503
H 8.415503 0.358242 2.491703
H 10.531603 0.438742 1.241103
H 10.531603 0.438742 -1.241197
H 8.415503 0.358142 -2.491697
H 5.952703 0.264342 -2.522497
H 3.287403 1.051242 2.992003
H 3.375603 -0.712158 2.997603
H -0.725597 -3.367558 -2.989997
H -2.296497 -2.561758 -2.999097
Cl 1.000000 0.000000 0.000000
